<?xml version="1.0" encoding="UTF-8"?>

<!-- generated on 2023-04-15 22:29:50 by Eclipse SUMO netedit Version 1.16.0
-->

<routes xmlns:xsi="http://www.w3.org/2001/XMLSchema-instance" xsi:noNamespaceSchemaLocation="http://sumo.dlr.de/xsd/routes_file.xsd">
    <!-- VTypes -->
    <vType id="rescue" vClass="emergency" guiShape="emergency">
        <param key="has.bluelight.device" value="true"/>
    </vType>
    <vType id="standard_car" length="5.00" minGap="2.50" maxSpeed="25.00" accel="1.0" decel="4.5" sigma="0.5"/>
    <!-- Routes -->
    <route id="E_N" edges="E1 E2TL TL2N"/>
    <route id="E_S" edges="E1 E2TL TL2S"/>
    <route id="E_W" edges="E1 E2TL TL2W"/>
    <route id="N_E" edges="N2TL TL2E -E1"/>
    <route id="N_S" edges="N2TL TL2S"/>
    <route id="N_W" edges="N2TL TL2W"/>
    <route id="S_E" edges="S2TL TL2E"/>
    <route id="S_N" edges="S2TL TL2N"/>
    <route id="S_W" edges="S2TL TL2W"/>
    <route id="W_E" edges="W2TL TL2E -E1"/>
    <route id="W_N" edges="W2TL TL2N"/>
    <route id="W_S" edges="W2TL TL2S"/>
    <route id="i1" edges="E1 E2TL"/>
    <route id="i2" edges="TL2E -E1"/>
    <route id="i3" edges="E1 E2TL"/>
    <!-- Vehicles, persons and containers (sorted by depart) -->
    <vehicle id="N_S_0" type="standard_car" depart="42.00" departLane="random" departSpeed="10.00" route="N_S"/>
    <vehicle id="E_W_1" type="standard_car" depart="67.00" departLane="random" departSpeed="10.00" route="E_W"/>
    <vehicle id="W_E_2" type="standard_car" depart="94.00" departLane="random" departSpeed="10.00" route="W_E"/>
    <vehicle id="N_S_3" type="standard_car" depart="112.00" departLane="random" departSpeed="10.00" route="N_S"/>
    <vehicle id="N_S_4" type="standard_car" depart="123.00" departLane="random" departSpeed="10.00" route="N_S"/>
    <vehicle id="N_S_5" type="standard_car" depart="129.00" departLane="random" departSpeed="10.00" route="N_S"/>
    <vehicle id="N_E_6" type="standard_car" depart="160.00" departLane="random" departSpeed="10.00" route="N_E"/>
    <vehicle id="E_W_7" type="standard_car" depart="193.00" departLane="random" departSpeed="10.00" route="E_W"/>
    <vehicle id="W_E_8" type="standard_car" depart="195.00" departLane="random" departSpeed="10.00" route="W_E"/>
    <vehicle id="S_N_9" type="rescue" depart="198.00" departLane="random" departSpeed="10.00" route="S_N"/>
    <vehicle id="W_E_10" type="standard_car" depart="199.00" departLane="random" departSpeed="10.00" route="W_E"/>
    <vehicle id="S_W_11" type="standard_car" depart="208.00" departLane="random" departSpeed="10.00" route="S_W"/>
    <vehicle id="S_N_12" type="standard_car" depart="226.00" departLane="random" departSpeed="10.00" route="i3"/>
    <vehicle id="W_E_13" type="standard_car" depart="231.00" departLane="random" departSpeed="10.00" route="W_E"/>
    <vehicle id="N_S_14" type="standard_car" depart="232.00" departLane="random" departSpeed="10.00" route="N_S"/>
    <vehicle id="N_S_15" type="standard_car" depart="235.00" departLane="random" departSpeed="10.00" route="N_S"/>
    <vehicle id="E_N_16" type="standard_car" depart="246.00" departLane="random" departSpeed="10.00" route="i1"/>
    <vehicle id="E_W_17" type="standard_car" depart="248.00" departLane="random" departSpeed="10.00" route="E_W"/>
    <vehicle id="E_W_18" type="standard_car" depart="250.00" departLane="random" departSpeed="10.00" route="E_W"/>
    <vehicle id="N_S_19" type="standard_car" depart="251.00" departLane="random" departSpeed="10.00" route="N_S"/>
    <vehicle id="N_S_21" type="standard_car" depart="257.00" departLane="random" departSpeed="10.00" route="N_S"/>
    <vehicle id="W_E_20" type="standard_car" depart="257.00" departLane="random" departSpeed="10.00" route="i3"/>
    <vehicle id="W_N_22" type="standard_car" depart="260.00" departLane="random" departSpeed="10.00" route="W_N"/>
    <vehicle id="S_N_23" type="standard_car" depart="282.00" departLane="random" departSpeed="10.00" route="S_N"/>
    <vehicle id="N_S_24" type="standard_car" depart="285.00" departLane="random" departSpeed="10.00" route="N_S"/>
    <vehicle id="E_W_25" type="standard_car" depart="290.00" departLane="random" departSpeed="10.00" route="E_W"/>
    <vehicle id="E_W_26" type="standard_car" depart="309.00" departLane="random" departSpeed="10.00" route="i1"/>
    <vehicle id="E_W_27" type="standard_car" depart="310.00" departLane="random" departSpeed="10.00" route="E_W"/>
    <vehicle id="E_W_28" type="standard_car" depart="314.00" departLane="random" departSpeed="10.00" route="E_W"/>
    <vehicle id="N_S_29" type="standard_car" depart="315.00" departLane="random" departSpeed="10.00" route="N_S"/>
    <vehicle id="S_N_30" type="standard_car" depart="324.00" departLane="random" departSpeed="10.00" route="S_N"/>
    <vehicle id="W_E_31" type="standard_car" depart="330.00" departLane="random" departSpeed="10.00" route="W_E"/>
    <vehicle id="E_W_32" type="standard_car" depart="331.00" departLane="random" departSpeed="10.00" route="E_W"/>
    <vehicle id="S_N_33" type="rescue" depart="342.00" departLane="random" departSpeed="10.00" route="S_N"/>
    <vehicle id="N_S_34" type="standard_car" depart="345.00" departLane="random" departSpeed="10.00" route="N_S"/>
    <vehicle id="W_E_35" type="standard_car" depart="357.00" departLane="random" departSpeed="10.00" route="W_E"/>
    <vehicle id="S_W_36" type="standard_car" depart="360.00" departLane="random" departSpeed="10.00" route="S_W"/>
    <vehicle id="W_E_37" type="standard_car" depart="362.00" departLane="random" departSpeed="10.00" route="W_E"/>
    <vehicle id="E_S_38" type="standard_car" depart="364.00" departLane="random" departSpeed="10.00" route="E_S"/>
    <vehicle id="S_N_39" type="standard_car" depart="377.00" departLane="random" departSpeed="10.00" route="S_N"/>
    <vehicle id="W_E_40" type="standard_car" depart="385.00" departLane="random" departSpeed="10.00" route="W_E"/>
    <vehicle id="S_N_41" type="standard_car" depart="391.00" departLane="random" departSpeed="10.00" route="S_N"/>
    <vehicle id="N_S_42" type="standard_car" depart="394.00" departLane="random" departSpeed="10.00" route="N_S"/>
    <vehicle id="W_S_43" type="standard_car" depart="402.00" departLane="random" departSpeed="10.00" route="W_S"/>
    <vehicle id="E_W_44" type="standard_car" depart="405.00" departLane="random" departSpeed="10.00" route="i3"/>
    <vehicle id="E_W_45" type="standard_car" depart="422.00" departLane="random" departSpeed="10.00" route="E_W"/>
    <vehicle id="W_E_46" type="standard_car" depart="425.00" departLane="random" departSpeed="10.00" route="W_E"/>
    <vehicle id="W_N_47" type="standard_car" depart="430.00" departLane="random" departSpeed="10.00" route="W_N"/>
    <vehicle id="W_E_48" type="standard_car" depart="435.00" departLane="random" departSpeed="10.00" route="W_E"/>
    <vehicle id="N_W_49" type="standard_car" depart="436.00" departLane="random" departSpeed="10.00" route="N_W"/>
    <vehicle id="N_S_50" type="standard_car" depart="440.00" departLane="random" departSpeed="10.00" route="N_S"/>
    <vehicle id="S_W_51" type="standard_car" depart="441.00" departLane="random" departSpeed="10.00" route="S_W"/>
    <vehicle id="N_S_52" type="standard_car" depart="442.00" departLane="random" departSpeed="10.00" route="N_S"/>
    <vehicle id="S_N_53" type="standard_car" depart="445.00" departLane="random" departSpeed="10.00" route="S_N"/>
    <vehicle id="S_W_54" type="standard_car" depart="448.00" departLane="random" departSpeed="10.00" route="S_W"/>
    <vehicle id="W_E_55" type="standard_car" depart="449.00" departLane="random" departSpeed="10.00" route="W_E"/>
    <vehicle id="N_W_56" type="standard_car" depart="452.00" departLane="random" departSpeed="10.00" route="N_W"/>
    <vehicle id="W_E_58" type="standard_car" depart="458.00" departLane="random" departSpeed="10.00" route="W_E"/>
    <vehicle id="W_N_57" type="standard_car" depart="458.00" departLane="random" departSpeed="10.00" route="W_N"/>
    <vehicle id="N_S_59" type="standard_car" depart="460.00" departLane="random" departSpeed="10.00" route="N_S"/>
    <vehicle id="S_N_60" type="standard_car" depart="461.00" departLane="random" departSpeed="10.00" route="S_N"/>
    <vehicle id="S_W_62" type="rescue" depart="463.00" departLane="random" departSpeed="10.00" route="S_W"/>
    <vehicle id="W_S_61" type="standard_car" depart="463.00" departLane="random" departSpeed="10.00" route="W_S"/>
    <vehicle id="S_N_63" type="standard_car" depart="468.00" departLane="random" departSpeed="10.00" route="S_N"/>
    <vehicle id="S_N_64" type="standard_car" depart="469.00" departLane="random" departSpeed="10.00" route="S_N"/>
    <vehicle id="W_N_65" type="standard_car" depart="471.00" departLane="random" departSpeed="10.00" route="i2"/>
    <vehicle id="E_W_66" type="standard_car" depart="475.00" departLane="random" departSpeed="10.00" route="E_W"/>
    <vehicle id="W_E_67" type="standard_car" depart="478.00" departLane="random" departSpeed="10.00" route="W_E"/>
    <vehicle id="N_S_68" type="standard_car" depart="481.00" departLane="random" departSpeed="10.00" route="N_S"/>
    <vehicle id="N_W_70" type="standard_car" depart="482.00" departLane="random" departSpeed="10.00" route="N_W"/>
    <vehicle id="W_N_69" type="standard_car" depart="482.00" departLane="random" departSpeed="10.00" route="W_N"/>
    <vehicle id="S_W_71" type="standard_car" depart="485.00" departLane="random" departSpeed="10.00" route="S_W"/>
    <vehicle id="E_W_72" type="standard_car" depart="488.00" departLane="random" departSpeed="10.00" route="E_W"/>
    <vehicle id="N_S_73" type="standard_car" depart="489.00" departLane="random" departSpeed="10.00" route="N_S"/>
    <vehicle id="E_W_74" type="standard_car" depart="504.00" departLane="random" departSpeed="10.00" route="E_W"/>
    <vehicle id="N_S_75" type="standard_car" depart="508.00" departLane="random" departSpeed="10.00" route="N_S"/>
    <vehicle id="S_N_76" type="standard_car" depart="509.00" departLane="random" departSpeed="10.00" route="S_N"/>
    <vehicle id="S_N_77" type="standard_car" depart="518.00" departLane="random" departSpeed="10.00" route="S_N"/>
    <vehicle id="N_S_78" type="standard_car" depart="522.00" departLane="random" departSpeed="10.00" route="i2"/>
    <vehicle id="N_S_79" type="standard_car" depart="523.00" departLane="random" departSpeed="10.00" route="N_S"/>
    <vehicle id="S_N_80" type="standard_car" depart="524.00" departLane="random" departSpeed="10.00" route="S_N"/>
    <vehicle id="E_W_81" type="standard_car" depart="531.00" departLane="random" departSpeed="10.00" route="E_W"/>
    <vehicle id="S_N_82" type="standard_car" depart="538.00" departLane="random" departSpeed="10.00" route="S_N"/>
    <vehicle id="S_N_83" type="standard_car" depart="543.00" departLane="random" departSpeed="10.00" route="S_N"/>
    <vehicle id="S_W_84" type="standard_car" depart="551.00" departLane="random" departSpeed="10.00" route="S_W"/>
    <vehicle id="N_S_85" type="standard_car" depart="552.00" departLane="random" departSpeed="10.00" route="N_S"/>
    <vehicle id="E_W_86" type="standard_car" depart="556.00" departLane="random" departSpeed="10.00" route="E_W"/>
    <vehicle id="N_S_87" type="standard_car" depart="565.00" departLane="random" departSpeed="10.00" route="N_S"/>
    <vehicle id="W_N_88" type="rescue" depart="572.00" departLane="random" departSpeed="10.00" route="W_N"/>
    <vehicle id="E_S_89" type="standard_car" depart="573.00" departLane="random" departSpeed="10.00" route="E_S"/>
    <vehicle id="S_N_90" type="standard_car" depart="574.00" departLane="random" departSpeed="10.00" route="S_N"/>
    <vehicle id="W_E_91" type="standard_car" depart="575.00" departLane="random" departSpeed="10.00" route="W_E"/>
    <vehicle id="N_S_92" type="standard_car" depart="576.00" departLane="random" departSpeed="10.00" route="N_S"/>
    <vehicle id="W_E_93" type="standard_car" depart="576.00" departLane="random" departSpeed="10.00" route="W_E"/>
    <vehicle id="S_N_94" type="standard_car" depart="577.00" departLane="random" departSpeed="10.00" route="S_N"/>
    <vehicle id="S_N_95" type="standard_car" depart="578.00" departLane="random" departSpeed="10.00" route="S_N"/>
    <vehicle id="N_S_96" type="standard_car" depart="583.00" departLane="random" departSpeed="10.00" route="N_S"/>
    <vehicle id="W_E_97" type="standard_car" depart="583.00" departLane="random" departSpeed="10.00" route="W_E"/>
    <vehicle id="E_W_98" type="standard_car" depart="584.00" departLane="random" departSpeed="10.00" route="E_W"/>
    <vehicle id="E_W_99" type="standard_car" depart="585.00" departLane="random" departSpeed="10.00" route="E_W"/>
    <vehicle id="N_S_100" type="standard_car" depart="585.00" departLane="random" departSpeed="10.00" route="N_S"/>
    <vehicle id="S_N_101" type="standard_car" depart="591.00" departLane="random" departSpeed="10.00" route="S_N"/>
    <vehicle id="E_W_102" type="standard_car" depart="592.00" departLane="random" departSpeed="10.00" route="E_W"/>
    <vehicle id="S_E_103" type="standard_car" depart="594.00" departLane="random" departSpeed="10.00" route="S_E"/>
    <vehicle id="N_S_104" type="standard_car" depart="598.00" departLane="random" departSpeed="10.00" route="N_S"/>
    <vehicle id="N_E_105" type="standard_car" depart="602.00" departLane="random" departSpeed="10.00" route="N_E"/>
    <vehicle id="E_W_106" type="standard_car" depart="606.00" departLane="random" departSpeed="10.00" route="E_W"/>
    <vehicle id="N_E_107" type="standard_car" depart="606.00" departLane="random" departSpeed="10.00" route="N_E"/>
    <vehicle id="S_N_108" type="standard_car" depart="607.00" departLane="random" departSpeed="10.00" route="S_N"/>
    <vehicle id="S_N_109" type="standard_car" depart="614.00" departLane="random" departSpeed="10.00" route="S_N"/>
    <vehicle id="N_S_110" type="standard_car" depart="616.00" departLane="random" departSpeed="10.00" route="N_S"/>
    <vehicle id="S_E_111" type="standard_car" depart="616.00" departLane="random" departSpeed="10.00" route="S_E"/>
    <vehicle id="W_N_112" type="standard_car" depart="619.00" departLane="random" departSpeed="10.00" route="W_N"/>
    <vehicle id="S_N_113" type="standard_car" depart="622.00" departLane="random" departSpeed="10.00" route="S_N"/>
    <vehicle id="N_S_114" type="standard_car" depart="631.00" departLane="random" departSpeed="10.00" route="i2"/>
    <vehicle id="S_N_115" type="standard_car" depart="631.00" departLane="random" departSpeed="10.00" route="S_N"/>
    <vehicle id="W_S_116" type="standard_car" depart="631.00" departLane="random" departSpeed="10.00" route="W_S"/>
    <vehicle id="N_E_117" type="standard_car" depart="632.00" departLane="random" departSpeed="10.00" route="N_E"/>
    <vehicle id="S_N_118" type="standard_car" depart="632.00" departLane="random" departSpeed="10.00" route="S_N"/>
    <vehicle id="E_S_121" type="standard_car" depart="636.00" departLane="random" departSpeed="10.00" route="E_S"/>
    <vehicle id="E_W_119" type="standard_car" depart="636.00" departLane="random" departSpeed="10.00" route="E_W"/>
    <vehicle id="E_W_122" type="standard_car" depart="636.00" departLane="random" departSpeed="10.00" route="E_W"/>
    <vehicle id="S_E_123" type="standard_car" depart="636.00" departLane="random" departSpeed="10.00" route="S_E"/>
    <vehicle id="S_N_120" type="standard_car" depart="636.00" departLane="random" departSpeed="10.00" route="S_N"/>
    <vehicle id="E_W_124" type="standard_car" depart="639.00" departLane="random" departSpeed="10.00" route="E_W"/>
    <vehicle id="W_N_125" type="standard_car" depart="640.00" departLane="random" departSpeed="10.00" route="W_N"/>
    <vehicle id="E_S_126" type="standard_car" depart="644.00" departLane="random" departSpeed="10.00" route="E_S"/>
    <vehicle id="N_S_127" type="standard_car" depart="644.00" departLane="random" departSpeed="10.00" route="N_S"/>
    <vehicle id="W_E_128" type="rescue" depart="654.00" departLane="random" departSpeed="10.00" route="W_E"/>
    <vehicle id="N_S_130" type="standard_car" depart="669.00" departLane="random" departSpeed="10.00" route="N_S"/>
    <vehicle id="W_E_129" type="standard_car" depart="669.00" departLane="random" departSpeed="10.00" route="W_E"/>
    <vehicle id="N_S_132" type="standard_car" depart="675.00" departLane="random" departSpeed="10.00" route="i3"/>
    <vehicle id="W_E_131" type="standard_car" depart="675.00" departLane="random" departSpeed="10.00" route="W_E"/>
    <vehicle id="E_W_133" type="standard_car" depart="676.00" departLane="random" departSpeed="10.00" route="E_W"/>
    <vehicle id="E_S_134" type="standard_car" depart="677.00" departLane="random" departSpeed="10.00" route="E_S"/>
    <vehicle id="E_W_135" type="standard_car" depart="677.00" departLane="random" departSpeed="10.00" route="E_W"/>
    <vehicle id="S_N_136" type="standard_car" depart="679.00" departLane="random" departSpeed="10.00" route="S_N"/>
    <vehicle id="E_S_138" type="standard_car" depart="681.00" departLane="random" departSpeed="10.00" route="E_S"/>
    <vehicle id="N_S_137" type="standard_car" depart="681.00" departLane="random" departSpeed="10.00" route="N_S"/>
    <vehicle id="S_N_139" type="standard_car" depart="687.00" departLane="random" departSpeed="10.00" route="S_N"/>
    <vehicle id="S_N_140" type="standard_car" depart="691.00" departLane="random" departSpeed="10.00" route="S_N"/>
    <vehicle id="W_N_141" type="standard_car" depart="694.00" departLane="random" departSpeed="10.00" route="W_N"/>
    <vehicle id="N_S_142" type="standard_car" depart="697.00" departLane="random" departSpeed="10.00" route="N_S"/>
    <vehicle id="N_E_143" type="standard_car" depart="700.00" departLane="random" departSpeed="10.00" route="N_E"/>
    <vehicle id="W_E_144" type="standard_car" depart="700.00" departLane="random" departSpeed="10.00" route="W_E"/>
    <vehicle id="W_S_145" type="standard_car" depart="703.00" departLane="random" departSpeed="10.00" route="W_S"/>
    <vehicle id="S_N_146" type="standard_car" depart="708.00" departLane="random" departSpeed="10.00" route="S_N"/>
    <vehicle id="N_S_147" type="standard_car" depart="712.00" departLane="random" departSpeed="10.00" route="N_S"/>
    <vehicle id="N_W_148" type="standard_car" depart="718.00" departLane="random" departSpeed="10.00" route="N_W"/>
    <vehicle id="E_W_149" type="standard_car" depart="720.00" departLane="random" departSpeed="10.00" route="E_W"/>
    <vehicle id="N_S_150" type="standard_car" depart="720.00" departLane="random" departSpeed="10.00" route="N_S"/>
    <vehicle id="S_N_151" type="standard_car" depart="720.00" departLane="random" departSpeed="10.00" route="S_N"/>
    <vehicle id="S_N_152" type="standard_car" depart="721.00" departLane="random" departSpeed="10.00" route="S_N"/>
    <vehicle id="N_S_153" type="standard_car" depart="724.00" departLane="random" departSpeed="10.00" route="N_S"/>
    <vehicle id="W_E_154" type="standard_car" depart="728.00" departLane="random" departSpeed="10.00" route="W_E"/>
    <vehicle id="E_W_155" type="standard_car" depart="732.00" departLane="random" departSpeed="10.00" route="E_W"/>
    <vehicle id="S_N_156" type="standard_car" depart="734.00" departLane="random" departSpeed="10.00" route="S_N"/>
    <vehicle id="W_E_157" type="standard_car" depart="742.00" departLane="random" departSpeed="10.00" route="W_E"/>
    <vehicle id="W_E_158" type="standard_car" depart="749.00" departLane="random" departSpeed="10.00" route="W_E"/>
    <vehicle id="W_E_159" type="standard_car" depart="749.00" departLane="random" departSpeed="10.00" route="W_E"/>
    <vehicle id="W_E_160" type="standard_car" depart="750.00" departLane="random" departSpeed="10.00" route="i3"/>
    <vehicle id="N_S_161" type="standard_car" depart="751.00" departLane="random" departSpeed="10.00" route="N_S"/>
    <vehicle id="W_E_162" type="standard_car" depart="752.00" departLane="random" departSpeed="10.00" route="W_E"/>
    <vehicle id="S_N_164" type="standard_car" depart="753.00" departLane="random" departSpeed="10.00" route="S_N"/>
    <vehicle id="W_E_163" type="rescue" depart="753.00" departLane="random" departSpeed="10.00" route="W_E"/>
    <vehicle id="N_S_165" type="standard_car" depart="755.00" departLane="random" departSpeed="10.00" route="N_S"/>
    <vehicle id="S_N_166" type="standard_car" depart="757.00" departLane="random" departSpeed="10.00" route="S_N"/>
    <vehicle id="N_S_168" type="standard_car" depart="758.00" departLane="random" departSpeed="10.00" route="N_S"/>
    <vehicle id="W_S_167" type="standard_car" depart="758.00" departLane="random" departSpeed="10.00" route="W_S"/>
    <vehicle id="E_W_169" type="standard_car" depart="759.00" departLane="random" departSpeed="10.00" route="E_W"/>
    <vehicle id="E_W_170" type="standard_car" depart="764.00" departLane="random" departSpeed="10.00" route="E_W"/>
    <vehicle id="W_N_171" type="standard_car" depart="767.00" departLane="random" departSpeed="10.00" route="W_N"/>
    <vehicle id="W_E_172" type="standard_car" depart="775.00" departLane="random" departSpeed="10.00" route="W_E"/>
    <vehicle id="E_W_173" type="standard_car" depart="781.00" departLane="random" departSpeed="10.00" route="E_W"/>
    <vehicle id="W_N_174" type="standard_car" depart="782.00" departLane="random" departSpeed="10.00" route="W_N"/>
    <vehicle id="S_N_175" type="standard_car" depart="784.00" departLane="random" departSpeed="10.00" route="S_N"/>
    <vehicle id="E_N_177" type="standard_car" depart="789.00" departLane="random" departSpeed="10.00" route="E_N"/>
    <vehicle id="W_S_176" type="standard_car" depart="789.00" departLane="random" departSpeed="10.00" route="W_S"/>
    <vehicle id="S_N_178" type="standard_car" depart="790.00" departLane="random" departSpeed="10.00" route="S_N"/>
    <vehicle id="W_E_179" type="standard_car" depart="793.00" departLane="random" departSpeed="10.00" route="W_E"/>
    <vehicle id="S_N_180" type="standard_car" depart="794.00" departLane="random" departSpeed="10.00" route="S_N"/>
    <vehicle id="N_S_181" type="standard_car" depart="798.00" departLane="random" departSpeed="10.00" route="N_S"/>
    <vehicle id="E_W_182" type="standard_car" depart="801.00" departLane="random" departSpeed="10.00" route="E_W"/>
    <vehicle id="S_N_183" type="standard_car" depart="801.00" departLane="random" departSpeed="10.00" route="i3"/>
    <vehicle id="E_S_184" type="standard_car" depart="805.00" departLane="random" departSpeed="10.00" route="E_S"/>
    <vehicle id="S_N_185" type="standard_car" depart="809.00" departLane="random" departSpeed="10.00" route="S_N"/>
    <vehicle id="N_S_186" type="standard_car" depart="810.00" departLane="random" departSpeed="10.00" route="N_S"/>
    <vehicle id="N_S_187" type="standard_car" depart="810.00" departLane="random" departSpeed="10.00" route="N_S"/>
    <vehicle id="S_N_188" type="standard_car" depart="815.00" departLane="random" departSpeed="10.00" route="S_N"/>
    <vehicle id="W_E_189" type="standard_car" depart="815.00" departLane="random" departSpeed="10.00" route="W_E"/>
    <vehicle id="S_W_190" type="standard_car" depart="816.00" departLane="random" departSpeed="10.00" route="S_W"/>
    <vehicle id="E_N_191" type="standard_car" depart="817.00" departLane="random" departSpeed="10.00" route="E_N"/>
    <vehicle id="E_W_192" type="standard_car" depart="819.00" departLane="random" departSpeed="10.00" route="E_W"/>
    <vehicle id="E_W_193" type="standard_car" depart="826.00" departLane="random" departSpeed="10.00" route="E_W"/>
    <vehicle id="E_N_194" type="standard_car" depart="828.00" departLane="random" departSpeed="10.00" route="E_N"/>
    <vehicle id="W_E_195" type="standard_car" depart="842.00" departLane="random" departSpeed="10.00" route="W_E"/>
    <vehicle id="E_W_196" type="standard_car" depart="843.00" departLane="random" departSpeed="10.00" route="E_W"/>
    <vehicle id="E_W_197" type="standard_car" depart="844.00" departLane="random" departSpeed="10.00" route="E_W"/>
    <vehicle id="N_S_198" type="standard_car" depart="849.00" departLane="random" departSpeed="10.00" route="N_S"/>
    <vehicle id="S_E_199" type="standard_car" depart="850.00" departLane="random" departSpeed="10.00" route="S_E"/>
    <vehicle id="N_E_200" type="standard_car" depart="862.00" departLane="random" departSpeed="10.00" route="N_E"/>
    <vehicle id="E_S_201" type="standard_car" depart="868.00" departLane="random" departSpeed="10.00" route="E_S"/>
    <vehicle id="E_N_202" type="standard_car" depart="870.00" departLane="random" departSpeed="10.00" route="E_N"/>
    <vehicle id="N_S_203" type="standard_car" depart="871.00" departLane="random" departSpeed="10.00" route="N_S"/>
    <vehicle id="N_S_204" type="standard_car" depart="873.00" departLane="random" departSpeed="10.00" route="N_S"/>
    <vehicle id="W_E_205" type="standard_car" depart="874.00" departLane="random" departSpeed="10.00" route="W_E"/>
    <vehicle id="N_E_206" type="standard_car" depart="875.00" departLane="random" departSpeed="10.00" route="N_E"/>
    <vehicle id="N_S_207" type="standard_car" depart="877.00" departLane="random" departSpeed="10.00" route="N_S"/>
    <vehicle id="S_N_208" type="standard_car" depart="880.00" departLane="random" departSpeed="10.00" route="S_N"/>
    <vehicle id="N_S_209" type="standard_car" depart="882.00" departLane="random" departSpeed="10.00" route="N_S"/>
    <vehicle id="N_S_210" type="standard_car" depart="883.00" departLane="random" departSpeed="10.00" route="N_S"/>
    <vehicle id="E_S_212" type="standard_car" depart="887.00" departLane="random" departSpeed="10.00" route="E_S"/>
    <vehicle id="W_S_211" type="standard_car" depart="887.00" departLane="random" departSpeed="10.00" route="W_S"/>
    <vehicle id="S_N_213" type="standard_car" depart="889.00" departLane="random" departSpeed="10.00" route="S_N"/>
    <vehicle id="E_S_215" type="standard_car" depart="890.00" departLane="random" departSpeed="10.00" route="E_S"/>
    <vehicle id="E_W_214" type="standard_car" depart="890.00" departLane="random" departSpeed="10.00" route="E_W"/>
    <vehicle id="S_E_216" type="standard_car" depart="892.00" departLane="random" departSpeed="10.00" route="S_E"/>
    <vehicle id="E_W_217" type="standard_car" depart="897.00" departLane="random" departSpeed="10.00" route="E_W"/>
    <vehicle id="E_W_219" type="standard_car" depart="900.00" departLane="random" departSpeed="10.00" route="E_W"/>
    <vehicle id="S_N_218" type="standard_car" depart="900.00" departLane="random" departSpeed="10.00" route="S_N"/>
    <vehicle id="N_S_220" type="standard_car" depart="904.00" departLane="random" departSpeed="10.00" route="N_S"/>
    <vehicle id="S_N_221" type="standard_car" depart="904.00" departLane="random" departSpeed="10.00" route="S_N"/>
    <vehicle id="S_N_222" type="standard_car" depart="906.00" departLane="random" departSpeed="10.00" route="S_N"/>
    <vehicle id="W_E_223" type="standard_car" depart="907.00" departLane="random" departSpeed="10.00" route="W_E"/>
    <vehicle id="E_S_224" type="standard_car" depart="914.00" departLane="random" departSpeed="10.00" route="E_S"/>
    <vehicle id="E_W_225" type="standard_car" depart="914.00" departLane="random" departSpeed="10.00" route="E_W"/>
    <vehicle id="S_N_226" type="standard_car" depart="915.00" departLane="random" departSpeed="10.00" route="S_N"/>
    <vehicle id="S_N_227" type="standard_car" depart="917.00" departLane="random" departSpeed="10.00" route="S_N"/>
    <vehicle id="S_N_228" type="standard_car" depart="919.00" departLane="random" departSpeed="10.00" route="S_N"/>
    <vehicle id="N_S_229" type="standard_car" depart="924.00" departLane="random" departSpeed="10.00" route="N_S"/>
    <vehicle id="N_E_230" type="standard_car" depart="925.00" departLane="random" departSpeed="10.00" route="N_E"/>
    <vehicle id="N_S_231" type="standard_car" depart="926.00" departLane="random" departSpeed="10.00" route="N_S"/>
    <vehicle id="N_S_232" type="standard_car" depart="926.00" departLane="random" departSpeed="10.00" route="N_S"/>
    <vehicle id="S_N_233" type="standard_car" depart="928.00" departLane="random" departSpeed="10.00" route="S_N"/>
    <vehicle id="E_S_235" type="standard_car" depart="938.00" departLane="random" departSpeed="10.00" route="E_S"/>
    <vehicle id="E_W_236" type="standard_car" depart="938.00" departLane="random" departSpeed="10.00" route="E_W"/>
    <vehicle id="W_E_234" type="standard_car" depart="938.00" departLane="random" departSpeed="10.00" route="W_E"/>
    <vehicle id="W_E_237" type="standard_car" depart="939.00" departLane="random" departSpeed="10.00" route="W_E"/>
    <vehicle id="W_E_238" type="standard_car" depart="943.00" departLane="random" departSpeed="10.00" route="W_E"/>
    <vehicle id="E_W_239" type="standard_car" depart="945.00" departLane="random" departSpeed="10.00" route="E_W"/>
    <vehicle id="N_S_240" type="standard_car" depart="946.00" departLane="random" departSpeed="10.00" route="N_S"/>
    <vehicle id="S_W_241" type="standard_car" depart="946.00" departLane="random" departSpeed="10.00" route="S_W"/>
    <vehicle id="N_S_242" type="standard_car" depart="947.00" departLane="random" departSpeed="10.00" route="N_S"/>
    <vehicle id="S_W_243" type="standard_car" depart="948.00" departLane="random" departSpeed="10.00" route="S_W"/>
    <vehicle id="S_E_244" type="standard_car" depart="953.00" departLane="random" departSpeed="10.00" route="S_E"/>
    <vehicle id="S_W_245" type="standard_car" depart="954.00" departLane="random" departSpeed="10.00" route="S_W"/>
    <vehicle id="E_W_246" type="standard_car" depart="955.00" departLane="random" departSpeed="10.00" route="E_W"/>
    <vehicle id="N_S_247" type="standard_car" depart="957.00" departLane="random" departSpeed="10.00" route="N_S"/>
    <vehicle id="E_N_248" type="standard_car" depart="958.00" departLane="random" departSpeed="10.00" route="E_N"/>